data_generated_by_bilbao_crystallographic_server

_cell_length_a                   5.8010 
_cell_length_b                   8.0526 
_cell_length_c                   5.8037 
_cell_angle_alpha                90.00 
_cell_angle_beta                 90.00 
_cell_angle_gamma                90.00        
_symmetry_space_group_name_H-M   'Immm' 
_symmetry_Int_Tables_number      71 

loop_
_symmetry_equiv_pos_site_id
_symmetry_equiv_pos_as_xyz
1    'x,y,z'
2    '-x,-y,z'
3    '-x,y,-z'
4    'x,-y,-z'
5    '-x,-y,-z'
6    'x,y,-z'
7    'x,-y,z'
8    '-x,y,z'
9    'x+1/2,y+1/2,z+1/2'
10   '-x+1/2,-y+1/2,z+1/2'
11   '-x+1/2,y+1/2,-z+1/2'
12   'x+1/2,-y+1/2,-z+1/2'
13   '-x+1/2,-y+1/2,-z+1/2'
14   'x+1/2,y+1/2,-z+1/2'
15   'x+1/2,-y+1/2,z+1/2'
16   '-x+1/2,y+1/2,z+1/2'

loop_
_atom_site_label 
_atom_site_type_symbol 
_atom_site_symmetry_multiplicity 
_atom_site_Wyckoff_symbol 
_atom_site_fract_x 
_atom_site_fract_y 
_atom_site_fract_z 
Mg1  Mg ? ?  0.50000  0.50000  0.00000
W2    W ? ?  0.00000  0.50000  0.50000
Pb1  Pb ? ?  0.50000  0.25530  0.50000
O3    O ? ?  0.00000  0.25830  0.50000
O4    O ? ?  0.24140  0.50000  0.26230
